version 2
run General-0-20100722-07:06:42-16115
attr configname General
attr datetime 20100722-07:06:42
attr experiment General
attr inifile omnetpp.ini
attr iterationvars ""
attr iterationvars2 $repetition=0
attr measurement ""
attr network fragmenterScenario
attr processid 16115
attr repetition 0
attr replication #0
attr resultdir results
attr runnumber 0
attr seedset 0

scalar fragmenterScenario.fragmenter 	"Total Payload" 	41699008
scalar fragmenterScenario.fragmenter 	"Total Overhead" 	6093412
scalar fragmenterScenario.fragmenter 	"Overhead To Payload Ratio" 	0.14612846425507
statistic fragmenterScenario.sink1 	"Packet Length"
field count 32348
field mean 1253.7044330407
field stddev 1001.5020948296
field sum 40554831
field sqrsum 83288020913
field min 257
field max 10887
bin	-INF	0
bin	-1403.5	0
bin	-1068.6	0
bin	-733.7	0
bin	-398.8	0
bin	-63.9	511
bin	271	9042
bin	605.9	6620
bin	940.8	4625
bin	1275.7	3278
bin	1610.6	2284
bin	1945.5	1670
bin	2280.4	1257
bin	2615.3	859
bin	2950.2	628
bin	3285.1	446
bin	3620	323
bin	3954.9	238
bin	4289.8	150
bin	4624.7	108
bin	4959.6	97
bin	5294.5	55
bin	5629.4	43
bin	5964.3	33
bin	6299.2	28
bin	6634.1	19
bin	6969	16
bin	7303.9	3
bin	7638.8	1
bin	7973.7	5
bin	8308.6	3
bin	8643.5	6
statistic fragmenterScenario.sink1 	"Packet Delay"
field count 32348
field mean 0.06705830465
field stddev 0.0081462424661686
field sum 2169.2020388182
field sqrsum 147.60959904805
field min 0.059704266665
field max 0.153101411076
bin	-INF	0
bin	0.005	0
bin	0.015	0
bin	0.025	0
bin	0.035	0
bin	0.045	0
bin	0.055	16529
bin	0.065	10937
bin	0.075	3572
bin	0.085	951
bin	0.095	254
bin	0.105	81
bin	0.115	13
bin	0.125	7
bin	0.135	1
bin	0.145	3
bin	0.155	0
bin	0.165	0
bin	0.175	0
bin	0.185	0
bin	0.195	0
bin	0.205	0
bin	0.215	0
bin	0.225	0
bin	0.235	0
bin	0.245	0
bin	0.255	0
bin	0.265	0
bin	0.275	0
bin	0.285	0
bin	0.295	0
bin	0.305	0
bin	0.315	0
bin	0.325	0
bin	0.335	0
bin	0.345	0
bin	0.355	0
bin	0.365	0
bin	0.375	0
bin	0.385	0
bin	0.395	0
bin	0.405	0
bin	0.415	0
bin	0.425	0
bin	0.435	0
bin	0.445	0
bin	0.455	0
bin	0.465	0
bin	0.475	0
bin	0.485	0
bin	0.495	0
bin	0.505	0
bin	0.515	0
bin	0.525	0
bin	0.535	0
bin	0.545	0
bin	0.555	0
bin	0.565	0
bin	0.575	0
bin	0.585	0
bin	0.595	0
bin	0.605	0
bin	0.615	0
bin	0.625	0
bin	0.635	0
bin	0.645	0
bin	0.655	0
bin	0.665	0
bin	0.675	0
bin	0.685	0
bin	0.695	0
bin	0.705	0
bin	0.715	0
bin	0.725	0
bin	0.735	0
bin	0.745	0
bin	0.755	0
bin	0.765	0
bin	0.775	0
bin	0.785	0
bin	0.795	0
bin	0.805	0
bin	0.815	0
bin	0.825	0
bin	0.835	0
bin	0.845	0
bin	0.855	0
bin	0.865	0
bin	0.875	0
bin	0.885	0
bin	0.895	0
bin	0.905	0
bin	0.915	0
bin	0.925	0
bin	0.935	0
bin	0.945	0
bin	0.955	0
bin	0.965	0
bin	0.975	0
bin	0.985	0
bin	0.995	0
bin	1.005	0
statistic fragmenterScenario.sink1 	"Interarrival Time"
field count 32347
field mean 0.12630664411223
field stddev 0.125887228427
field sum 4085.6410170983
field sqrsum 1028.6498905312
field min 0.003466666666
field max 1.360763458283
bin	-INF	640
bin	0.005	2975
bin	0.014955	2213
bin	0.02491	2035
bin	0.034865	1844
bin	0.04482	1709
bin	0.054775	1507
bin	0.06473	1467
bin	0.074685	1426
bin	0.08464	1165
bin	0.094595	1173
bin	0.10455	1079
bin	0.114505	1019
bin	0.12446	885
bin	0.134415	855
bin	0.14437	791
bin	0.154325	768
bin	0.16428	684
bin	0.174235	598
bin	0.18419	580
bin	0.194145	543
bin	0.2041	469
bin	0.214055	431
bin	0.22401	424
bin	0.233965	368
bin	0.24392	358
bin	0.253875	315
bin	0.26383	338
bin	0.273785	274
bin	0.28374	318
bin	0.293695	247
bin	0.30365	178
bin	0.313605	193
bin	0.32356	201
bin	0.333515	177
bin	0.34347	151
bin	0.353425	143
bin	0.36338	140
bin	0.373335	120
bin	0.38329	116
bin	0.393245	113
bin	0.4032	96
bin	0.413155	94
bin	0.42311	83
bin	0.433065	76
bin	0.44302	70
bin	0.452975	69
bin	0.46293	63
bin	0.472885	59
bin	0.48284	47
bin	0.492795	50
bin	0.50275	53
bin	0.512705	48
bin	0.52266	45
bin	0.532615	35
bin	0.54257	31
bin	0.552525	29
bin	0.56248	19
bin	0.572435	27
bin	0.58239	25
bin	0.592345	23
bin	0.6023	16
bin	0.612255	18
bin	0.62221	24
bin	0.632165	12
bin	0.64212	13
bin	0.652075	14
bin	0.66203	15
bin	0.671985	14
bin	0.68194	5
bin	0.691895	10
bin	0.70185	18
bin	0.711805	10
bin	0.72176	8
bin	0.731715	9
bin	0.74167	4
bin	0.751625	11
bin	0.76158	5
bin	0.771535	8
bin	0.78149	4
bin	0.791445	1
bin	0.8014	4
bin	0.811355	7
bin	0.82131	4
bin	0.831265	5
bin	0.84122	2
bin	0.851175	5
bin	0.86113	1
bin	0.871085	3
bin	0.88104	1
bin	0.890995	2
bin	0.90095	3
bin	0.910905	1
bin	0.92086	0
bin	0.930815	0
bin	0.94077	1
bin	0.950725	3
bin	0.96068	1
bin	0.970635	0
bin	0.98059	3
bin	0.990545	0
bin	1.0005	10
statistic fragmenterScenario.sink2 	"Packet Length"
field count 40953
field mean 1018.1660928381
field stddev 1000.8958821787
field sum 41696956
field sqrsum 83479835976
field min 20
field max 10887
bin	-INF	0
bin	-1703.5	0
bin	-1356.6	0
bin	-1009.7	0
bin	-662.8	0
bin	-315.9	443
bin	31	11918
bin	377.9	8382
bin	724.8	6053
bin	1071.7	4141
bin	1418.6	2860
bin	1765.5	2073
bin	2112.4	1501
bin	2459.3	1049
bin	2806.2	730
bin	3153.1	521
bin	3500	382
bin	3846.9	274
bin	4193.8	180
bin	4540.7	118
bin	4887.6	100
bin	5234.5	65
bin	5581.4	46
bin	5928.3	35
bin	6275.2	28
bin	6622.1	20
bin	6969	16
bin	7315.9	3
bin	7662.8	1
bin	8009.7	5
bin	8356.6	3
bin	8703.5	6
statistic fragmenterScenario.sink2 	"Packet Delay"
field count 40953
field mean 0.086431434398556
field stddev 0.033261847498569
field sum 3539.626532924
field sqrsum 351.2422641116
field min 0.050613333332
field max 0.389909375081
bin	-INF	0
bin	0.005	0
bin	0.015	0
bin	0.025	0
bin	0.035	0
bin	0.045	4153
bin	0.055	8319
bin	0.065	6951
bin	0.075	5345
bin	0.085	4081
bin	0.095	3043
bin	0.105	2359
bin	0.115	1789
bin	0.125	1308
bin	0.135	983
bin	0.145	734
bin	0.155	552
bin	0.165	374
bin	0.175	267
bin	0.185	179
bin	0.195	126
bin	0.205	113
bin	0.215	77
bin	0.225	55
bin	0.235	41
bin	0.245	34
bin	0.255	26
bin	0.265	17
bin	0.275	4
bin	0.285	3
bin	0.295	5
bin	0.305	3
bin	0.315	2
bin	0.325	4
bin	0.335	3
bin	0.345	1
bin	0.355	0
bin	0.365	1
bin	0.375	0
bin	0.385	1
bin	0.395	0
bin	0.405	0
bin	0.415	0
bin	0.425	0
bin	0.435	0
bin	0.445	0
bin	0.455	0
bin	0.465	0
bin	0.475	0
bin	0.485	0
bin	0.495	0
bin	0.505	0
bin	0.515	0
bin	0.525	0
bin	0.535	0
bin	0.545	0
bin	0.555	0
bin	0.565	0
bin	0.575	0
bin	0.585	0
bin	0.595	0
bin	0.605	0
bin	0.615	0
bin	0.625	0
bin	0.635	0
bin	0.645	0
bin	0.655	0
bin	0.665	0
bin	0.675	0
bin	0.685	0
bin	0.695	0
bin	0.705	0
bin	0.715	0
bin	0.725	0
bin	0.735	0
bin	0.745	0
bin	0.755	0
bin	0.765	0
bin	0.775	0
bin	0.785	0
bin	0.795	0
bin	0.805	0
bin	0.815	0
bin	0.825	0
bin	0.835	0
bin	0.845	0
bin	0.855	0
bin	0.865	0
bin	0.875	0
bin	0.885	0
bin	0.895	0
bin	0.905	0
bin	0.915	0
bin	0.925	0
bin	0.935	0
bin	0.945	0
bin	0.955	0
bin	0.965	0
bin	0.975	0
bin	0.985	0
bin	0.995	0
bin	1.005	0
statistic fragmenterScenario.sink2 	"Interarrival Time"
field count 40952
field mean 0.099764085577381
field stddev 0.10325702124409
field sum 4085.5388325649
field sqrsum 844.21011699664
field min 1.6e-05
field max 1.139552609764
bin	-INF	5497
bin	0.005	3150
bin	0.014955	2217
bin	0.02491	2187
bin	0.034865	2145
bin	0.04482	2130
bin	0.054775	1987
bin	0.06473	1891
bin	0.074685	1719
bin	0.08464	1639
bin	0.094595	1567
bin	0.10455	1273
bin	0.114505	1248
bin	0.12446	1183
bin	0.134415	974
bin	0.14437	935
bin	0.154325	853
bin	0.16428	748
bin	0.174235	768
bin	0.18419	613
bin	0.194145	632
bin	0.2041	517
bin	0.214055	495
bin	0.22401	419
bin	0.233965	381
bin	0.24392	356
bin	0.253875	337
bin	0.26383	298
bin	0.273785	267
bin	0.28374	246
bin	0.293695	224
bin	0.30365	191
bin	0.313605	189
bin	0.32356	159
bin	0.333515	149
bin	0.34347	133
bin	0.353425	104
bin	0.36338	105
bin	0.373335	86
bin	0.38329	100
bin	0.393245	76
bin	0.4032	72
bin	0.413155	66
bin	0.42311	58
bin	0.433065	52
bin	0.44302	51
bin	0.452975	58
bin	0.46293	43
bin	0.472885	37
bin	0.48284	35
bin	0.492795	36
bin	0.50275	22
bin	0.512705	21
bin	0.52266	21
bin	0.532615	11
bin	0.54257	17
bin	0.552525	19
bin	0.56248	16
bin	0.572435	11
bin	0.58239	7
bin	0.592345	13
bin	0.6023	7
bin	0.612255	7
bin	0.62221	6
bin	0.632165	11
bin	0.64212	7
bin	0.652075	8
bin	0.66203	4
bin	0.671985	6
bin	0.68194	1
bin	0.691895	2
bin	0.70185	5
bin	0.711805	2
bin	0.72176	6
bin	0.731715	4
bin	0.74167	2
bin	0.751625	4
bin	0.76158	2
bin	0.771535	0
bin	0.78149	1
bin	0.791445	1
bin	0.8014	2
bin	0.811355	2
bin	0.82131	1
bin	0.831265	0
bin	0.84122	2
bin	0.851175	0
bin	0.86113	0
bin	0.871085	1
bin	0.88104	1
bin	0.890995	1
bin	0.90095	0
bin	0.910905	0
bin	0.92086	1
bin	0.930815	0
bin	0.94077	0
bin	0.950725	0
bin	0.96068	0
bin	0.970635	0
bin	0.98059	0
bin	0.990545	0
bin	1.0005	1
